Version 4
SHEET 1 880 680
WIRE -272 -112 -352 -112
WIRE 80 -112 -272 -112
WIRE 80 32 80 -112
WIRE 48 48 -80 48
WIRE 208 64 112 64
WIRE 272 64 208 64
WIRE 400 64 352 64
WIRE 432 64 400 64
WIRE 560 64 512 64
WIRE 48 80 -176 80
WIRE -80 160 -80 48
WIRE 208 160 208 144
WIRE 208 160 -80 160
WIRE 208 176 208 160
WIRE 400 192 400 64
WIRE 432 192 400 192
WIRE 560 208 560 64
WIRE 560 208 496 208
WIRE 80 224 80 96
WIRE 80 224 -240 224
WIRE 432 224 400 224
WIRE 208 272 208 256
WIRE 208 272 -80 272
WIRE 208 288 208 272
WIRE -272 336 -272 -112
WIRE 80 336 -272 336
WIRE -80 352 -80 272
WIRE 48 352 -80 352
WIRE 208 368 112 368
WIRE 272 368 208 368
WIRE 400 368 400 224
WIRE 400 368 352 368
WIRE 432 368 400 368
WIRE 544 368 512 368
WIRE 48 384 -176 384
WIRE 544 432 544 368
WIRE -240 560 -240 224
WIRE -240 560 -384 560
WIRE 80 560 80 400
WIRE 80 560 -240 560
FLAG -176 160 0
FLAG -176 464 0
FLAG -384 640 0
FLAG -352 -32 0
FLAG 544 432 0
SYMBOL Opamps\\AD795 80 0 R0
SYMATTR InstName U1
SYMBOL Opamps\\AD795 80 304 R0
SYMATTR InstName U2
SYMBOL Opamps\\AD795 464 144 R0
SYMATTR InstName U3
SYMBOL res 192 160 R0
SYMATTR InstName R1
SYMATTR Value 1k
SYMBOL res 192 48 R0
SYMATTR InstName R2
SYMATTR Value 1k
SYMBOL res 192 272 R0
SYMATTR InstName R3
SYMATTR Value 1k
SYMBOL res 368 48 R90
WINDOW 0 0 56 VBottom 2
WINDOW 3 32 56 VTop 2
SYMATTR InstName R4
SYMATTR Value 1k
SYMBOL res 368 352 R90
WINDOW 0 0 56 VBottom 2
WINDOW 3 32 56 VTop 2
SYMATTR InstName R5
SYMATTR Value 1k
SYMBOL res 528 48 R90
WINDOW 0 0 56 VBottom 2
WINDOW 3 32 56 VTop 2
SYMATTR InstName R6
SYMATTR Value 1k
SYMBOL res 528 352 R90
WINDOW 0 0 56 VBottom 2
WINDOW 3 32 56 VTop 2
SYMATTR InstName R7
SYMATTR Value 1k
SYMBOL voltage -176 64 R0
WINDOW 123 0 0 Left 2
WINDOW 39 0 0 Left 2
SYMATTR InstName V1
SYMATTR Value 2
SYMBOL voltage -176 368 R0
WINDOW 123 0 0 Left 2
WINDOW 39 0 0 Left 2
SYMATTR InstName V2
SYMATTR Value 1
SYMBOL voltage -352 -128 R0
WINDOW 123 0 0 Left 2
WINDOW 39 0 0 Left 2
SYMATTR InstName V3
SYMATTR Value 12
SYMBOL voltage -384 544 R0
WINDOW 123 0 0 Left 2
WINDOW 39 0 0 Left 2
SYMATTR InstName V4
SYMATTR Value -12
TEXT -418 664 Left 2 !.tran 0 1 0 0.01
